Version 4
SHEET 1 1120 680
WIRE 352 48 160 48
WIRE 160 112 160 48
WIRE 96 160 -48 160
WIRE 192 176 160 176
WIRE 352 176 352 48
WIRE -48 208 -48 160
WIRE 160 256 160 208
WIRE 192 256 192 176
WIRE 192 256 160 256
WIRE 160 288 160 256
WIRE 352 288 352 256
WIRE -48 320 -48 288
FLAG 160 288 0
FLAG -48 320 0
FLAG 352 288 0
SYMBOL ALD1101 96 112 R0
SYMATTR InstName M1
SYMBOL voltage -48 192 R0
WINDOW 123 0 0 Left 2
WINDOW 39 0 0 Left 2
SYMATTR InstName VG
SYMATTR Value 1
SYMBOL voltage 352 160 R0
WINDOW 123 0 0 Left 2
WINDOW 39 0 0 Left 2
SYMATTR InstName VD
SYMATTR Value 1
TEXT -80 360 Left 2 !.lib C:\\Users\\CheeLoong\\Github\\ElectricalEngineering\\LTSpice\\ECE331\\Lab0\\ECE331_354.lib
TEXT -80 384 Left 2 !.dc VD 0 2 0.01
